data/pgmodel/SmallGrid.m
% This file was generated by Sparlectra exportMatPower.jl
function mpc = SmallGrid
%% MATPOWER Case Format : Version 2
mpc.version = '2';
%%-----  Power Flow Data  -----%%
%% system MVA base
mpc.baseMVA = 700.0;
%% bus data
mpc.bus = [
%bus	type	Pd	Qd	Gs	Bs	area	Vm	Va	baseKV	zone	Vmax	Vmin
1	1	24.0	15.0	0.0	0.0	1	1.0	0.0	132.0	1	1.1	0.9; %Bus: Bus_1_132 (ID: #Bus_1_132#)
2	1	11.0	3.0	0.0	0.0	1	1.0	0.0	132.0	1	1.1	0.9; %Bus: Bus_2_132 (ID: #Bus_2_132#)
3	2	0.0	0.0	0.0	0.0	1	1.0	0.0	33.0	1	1.1	0.9; %Bus: Bus_3_33 (ID: #Bus_3_33#)
4	1	68.0	36.0	0.0	0.0	1	1.0	0.0	132.0	1	1.1	0.9; %Bus: Bus_4_132 (ID: #Bus_4_132#)
5	1	84.0	18.0	0.0	0.0	1	1.0	0.0	132.0	1	1.1	0.9; %Bus: Bus_5_132 (ID: #Bus_5_132#)
6	1	48.0	10.0	0.0	0.0	1	1.0	0.0	132.0	1	1.1	0.9; %Bus: Bus_6_132 (ID: #Bus_6_132#)
7	2	87.0	30.0	0.0	0.0	1	1.0	0.0	132.0	1	1.1	0.9; %Bus: Bus_7_132 (ID: #Bus_7_132#)
8	1	65.0	10.0	0.0	0.0	1	1.0	0.0	132.0	1	1.1	0.9; %Bus: Bus_8_132 (ID: #Bus_8_132#)
9	1	51.0	27.0	0.0	0.0	1	1.0	0.0	132.0	1	1.1	0.9; %Bus: Bus_9_132 (ID: #Bus_9_132#)
10	1	66.0	20.0	0.0	0.0	1	1.0	0.0	132.0	1	1.1	0.9; %Bus: Bus_10_132 (ID: #Bus_10_132#)
11	1	77.0	14.0	0.0	0.0	1	1.0	0.0	132.0	1	1.1	0.9; %Bus: Bus_11_132 (ID: #Bus_11_132#)
12	2	113.0	32.0	0.0	0.0	1	1.0	0.0	132.0	1	1.1	0.9; %Bus: Bus_12_132 (ID: #Bus_12_132#)
13	1	38.0	15.0	0.0	0.0	1	1.0	0.0	132.0	1	1.1	0.9; %Bus: Bus_13_132 (ID: #Bus_13_132#)
14	1	43.0	16.0	0.0	0.0	1	1.0	0.0	132.0	1	1.1	0.9; %Bus: Bus_14_132 (ID: #Bus_14_132#)
15	1	0.0	0.0	0.0	0.0	1	1.0	0.0	220.0	1	1.1	0.9; %Bus: Bus_15_220 (ID: #Bus_15_220#)
16	2	130.0	26.0	0.0	0.0	1	1.0	0.0	132.0	1	1.1	0.9; %Bus: Bus_16_132 (ID: #Bus_16_132#)
17	1	34.0	0.0	0.0	0.0	1	1.0	0.0	132.0	1	1.1	0.9; %Bus: Bus_17_132 (ID: #Bus_17_132#)
18	1	0.0	0.0	0.0	0.0	1	1.0	0.0	33.0	1	1.1	0.9; %Bus: Bus_18_33 (ID: #Bus_18_33#)
19	1	39.0	10.0	0.0	0.0	1	1.0	0.0	132.0	1	1.1	0.9; %Bus: Bus_19_132 (ID: #Bus_19_132#)
20	1	25.0	10.0	0.0	0.0	1	1.0	0.0	132.0	1	1.1	0.9; %Bus: Bus_20_132 (ID: #Bus_20_132#)
21	1	18.0	3.0	0.0	0.0	1	1.0	0.0	132.0	1	1.1	0.9; %Bus: Bus_21_132 (ID: #Bus_21_132#)
22	1	70.0	23.0	0.0	0.0	1	1.0	0.0	132.0	1	1.1	0.9; %Bus: Bus_22_132 (ID: #Bus_22_132#)
23	2	0.0	0.0	0.0	0.0	1	1.0	0.0	132.0	1	1.1	0.9; %Bus: Bus_23_132 (ID: #Bus_23_132#)
24	1	17.0	8.0	0.0	0.0	1	1.0	0.0	132.0	1	1.1	0.9; %Bus: Bus_24_132 (ID: #Bus_24_132#)
25	1	31.0	26.0	0.0	19.999999008	1	1.0	0.0	132.0	1	1.1	0.9; %Bus: Bus_25_132 (ID: #Bus_25_132#)
26	1	163.0	42.0	0.0	0.0	1	1.0	0.0	132.0	1	1.1	0.9; %Bus: Bus_26_132 (ID: #Bus_26_132#)
27	1	33.0	9.0	0.0	0.0	1	1.0	0.0	132.0	1	1.1	0.9; %Bus: Bus_27_132 (ID: #Bus_27_132#)
28	2	33.0	15.0	0.0	0.0	1	1.0	0.0	132.0	1	1.1	0.9; %Bus: Bus_28_132 (ID: #Bus_28_132#)
29	1	0.0	0.0	0.0	0.0	1	1.0	0.0	33.0	1	1.1	0.9; %Bus: Bus_29_33 (ID: #Bus_29_33#)
30	1	47.0	11.0	0.0	0.0	1	1.0	0.0	132.0	1	1.1	0.9; %Bus: Bus_30_132 (ID: #Bus_30_132#)
31	1	0.0	0.0	0.0	0.0	1	1.0	0.0	220.0	1	1.1	0.9; %Bus: Bus_31_220 (ID: #Bus_31_220#)
32	1	0.0	0.0	0.0	24.99999876	1	1.0	0.0	132.0	1	1.1	0.9; %Bus: Bus_32_132 (ID: #Bus_32_132#)
33	3	0.0	0.0	0.0	0.0	1	1.0	0.0	132.0	1	1.1	0.9; %Bus: Bus_33_132* (slack) (ID: #Bus_33_132*#)
34	1	39.0	12.0	0.0	0.0	1	1.0	0.0	132.0	1	1.1	0.9; %Bus: Bus_34_132 (ID: #Bus_34_132#)
35	2	39.0	18.0	0.0	0.0	1	1.0	0.0	132.0	1	1.1	0.9; %Bus: Bus_35_132 (ID: #Bus_35_132#)
36	1	38.0	25.0	0.0	0.0	1	1.0	0.0	132.0	1	1.1	0.9; %Bus: Bus_36_132 (ID: #Bus_36_132#)
37	1	31.0	17.0	0.0	0.0	1	1.0	0.0	132.0	1	1.1	0.9; %Bus: Bus_37_132 (ID: #Bus_37_132#)
38	1	0.0	0.0	0.0	0.0	1	1.0	0.0	33.0	1	1.1	0.9; %Bus: Bus_38_33 (ID: #Bus_38_33#)
39	1	37.0	10.0	0.0	0.0	1	1.0	0.0	132.0	1	1.1	0.9; %Bus: Bus_39_132 (ID: #Bus_39_132#)
40	2	28.0	10.0	0.0	9.999999504	1	1.0	0.0	132.0	1	1.1	0.9; %Bus: Bus_40_132 (ID: #Bus_40_132#)
41	1	7.0	3.0	0.0	0.0	1	1.0	0.0	132.0	1	1.1	0.9; %Bus: Bus_41_132 (ID: #Bus_41_132#)
42	1	68.0	27.0	0.0	12.000004631999998	1	1.0	0.0	132.0	1	1.1	0.9; %Bus: Bus_42_132 (ID: #Bus_42_132#)
43	2	43.0	27.0	0.0	0.0	1	1.0	0.0	132.0	1	1.1	0.9; %Bus: Bus_43_132 (ID: #Bus_43_132#)
44	1	12.0	3.0	0.0	0.0	1	1.0	0.0	132.0	1	1.1	0.9; %Bus: Bus_44_132 (ID: #Bus_44_132#)
45	1	61.0	28.0	0.0	0.0	1	1.0	0.0	132.0	1	1.1	0.9; %Bus: Bus_45_132 (ID: #Bus_45_132#)
46	1	14.0	1.0	0.0	0.0	1	1.0	0.0	132.0	1	1.1	0.9; %Bus: Bus_46_132 (ID: #Bus_46_132#)
47	1	21.0	10.0	0.0	0.0	1	1.0	0.0	132.0	1	1.1	0.9; %Bus: Bus_47_132 (ID: #Bus_47_132#)
48	1	59.0	23.0	0.0	0.0	1	1.0	0.0	132.0	1	1.1	0.9; %Bus: Bus_48_132 (ID: #Bus_48_132#)
49	2	277.0	113.0	0.0	0.0	1	1.0	0.0	132.0	1	1.1	0.9; %Bus: Bus_49_132 (ID: #Bus_49_132#)
50	1	0.0	0.0	0.0	0.0	1	1.0	0.0	220.0	1	1.1	0.9; %Bus: Bus_50_220 (ID: #Bus_50_220#)
51	2	0.0	0.0	0.0	0.0	1	1.0	0.0	132.0	1	1.1	0.9; %Bus: Bus_51_132 (ID: #Bus_51_132#)
52	1	0.0	0.0	0.0	39.999998016	1	1.0	0.0	132.0	1	1.1	0.9; %Bus: Bus_52_132 (ID: #Bus_52_132#)
53	2	37.0	18.0	0.0	0.0	1	1.0	0.0	132.0	1	1.1	0.9; %Bus: Bus_53_132 (ID: #Bus_53_132#)
54	1	63.0	22.0	0.0	0.0	1	1.0	0.0	132.0	1	1.1	0.9; %Bus: Bus_54_132 (ID: #Bus_54_132#)
55	1	71.0	13.0	0.0	0.0	1	1.0	0.0	132.0	1	1.1	0.9; %Bus: Bus_55_132 (ID: #Bus_55_132#)
56	1	39.0	30.0	0.0	6.0000005735999995	1	1.0	0.0	132.0	1	1.1	0.9; %Bus: Bus_56_132 (ID: #Bus_56_132#)
57	1	10.0	5.0	0.0	0.0	1	1.0	0.0	132.0	1	1.1	0.9; %Bus: Bus_57_132 (ID: #Bus_57_132#)
58	1	10.0	0.0	0.0	0.0	1	1.0	0.0	132.0	1	1.1	0.9; %Bus: Bus_58_132 (ID: #Bus_58_132#)
59	1	8.0	3.0	0.0	0.0	1	1.0	0.0	132.0	1	1.1	0.9; %Bus: Bus_59_132 (ID: #Bus_59_132#)
60	1	12.0	7.0	0.0	0.0	1	1.0	0.0	132.0	1	1.1	0.9; %Bus: Bus_60_132 (ID: #Bus_60_132#)
61	1	6.0	0.0	0.0	0.0	1	1.0	0.0	132.0	1	1.1	0.9; %Bus: Bus_61_132 (ID: #Bus_61_132#)
62	2	47.0	10.0	0.0	0.0	1	1.0	0.0	132.0	1	1.1	0.9; %Bus: Bus_62_132 (ID: #Bus_62_132#)
63	1	52.0	22.0	0.0	0.0	1	1.0	0.0	132.0	1	1.1	0.9; %Bus: Bus_63_132 (ID: #Bus_63_132#)
64	1	78.0	3.0	0.0	0.0	1	1.0	0.0	132.0	1	1.1	0.9; %Bus: Bus_64_132 (ID: #Bus_64_132#)
65	1	90.0	30.0	0.0	0.0	1	1.0	0.0	132.0	1	1.1	0.9; %Bus: Bus_65_132 (ID: #Bus_65_132#)
66	2	0.0	0.0	0.0	0.0	1	1.0	0.0	220.0	1	1.1	0.9; %Bus: Bus_66_220 (ID: #Bus_66_220#)
67	1	34.0	16.0	0.0	0.0	1	1.0	0.0	132.0	1	1.1	0.9; %Bus: Bus_67_132 (ID: #Bus_67_132#)
68	1	15.0	9.0	0.0	0.0	1	1.0	0.0	132.0	1	1.1	0.9; %Bus: Bus_68_132 (ID: #Bus_68_132#)
69	1	22.0	7.0	0.0	0.0	1	1.0	0.0	132.0	1	1.1	0.9; %Bus: Bus_69_132 (ID: #Bus_69_132#)
70	2	0.0	0.0	0.0	0.0	1	1.0	0.0	132.0	1	1.1	0.9; %Bus: Bus_70_132 (ID: #Bus_70_132#)
71	1	53.0	22.0	0.0	9.999999504	1	1.0	0.0	132.0	1	1.1	0.9; %Bus: Bus_71_132 (ID: #Bus_71_132#)
72	1	11.0	7.0	0.0	0.0	1	1.0	0.0	132.0	1	1.1	0.9; %Bus: Bus_72_132 (ID: #Bus_72_132#)
73	1	45.0	25.0	0.0	0.0	1	1.0	0.0	132.0	1	1.1	0.9; %Bus: Bus_73_132 (ID: #Bus_73_132#)
74	1	22.0	15.0	0.0	0.0	1	1.0	0.0	132.0	1	1.1	0.9; %Bus: Bus_74_132 (ID: #Bus_74_132#)
75	1	42.0	31.0	0.0	0.0	1	1.0	0.0	132.0	1	1.1	0.9; %Bus: Bus_75_132 (ID: #Bus_75_132#)
76	1	42.0	0.0	0.0	0.0	1	1.0	0.0	132.0	1	1.1	0.9; %Bus: Bus_76_132 (ID: #Bus_76_132#)
77	1	71.0	26.0	0.0	0.0	1	1.0	0.0	132.0	1	1.1	0.9; %Bus: Bus_77_132 (ID: #Bus_77_132#)
78	1	30.0	16.0	0.0	0.0	1	1.0	0.0	132.0	1	1.1	0.9; %Bus: Bus_78_132 (ID: #Bus_78_132#)
79	1	5.0	3.0	0.0	0.0	1	1.0	0.0	132.0	1	1.1	0.9; %Bus: Bus_79_132 (ID: #Bus_79_132#)
80	1	23.0	9.0	0.0	0.0	1	1.0	0.0	132.0	1	1.1	0.9; %Bus: Bus_80_132 (ID: #Bus_80_132#)
81	2	0.0	0.0	0.0	0.0	1	1.0	0.0	220.0	1	1.1	0.9; %Bus: Bus_81_220 (ID: #Bus_81_220#)
82	1	16.0	8.0	0.0	9.999999504	1	1.0	0.0	132.0	1	1.1	0.9; %Bus: Bus_82_132 (ID: #Bus_82_132#)
83	1	12.0	0.0	0.0	0.0	1	1.0	0.0	132.0	1	1.1	0.9; %Bus: Bus_83_132 (ID: #Bus_83_132#)
84	1	66.0	23.0	0.0	0.0	1	1.0	0.0	132.0	1	1.1	0.9; %Bus: Bus_84_132 (ID: #Bus_84_132#)
85	1	59.0	26.0	0.0	14.000001048	1	1.0	0.0	132.0	1	1.1	0.9; %Bus: Bus_85_132 (ID: #Bus_85_132#)
86	1	23.0	11.0	0.0	0.0	1	1.0	0.0	132.0	1	1.1	0.9; %Bus: Bus_86_132 (ID: #Bus_86_132#)
87	1	17.0	7.0	0.0	0.0	1	1.0	0.0	132.0	1	1.1	0.9; %Bus: Bus_87_132 (ID: #Bus_87_132#)
88	1	28.0	7.0	0.0	0.0	1	1.0	0.0	132.0	1	1.1	0.9; %Bus: Bus_88_132 (ID: #Bus_88_132#)
89	1	13.0	0.0	0.0	0.0	1	1.0	0.0	132.0	1	1.1	0.9; %Bus: Bus_89_132 (ID: #Bus_89_132#)
90	2	0.0	0.0	0.0	0.0	1	1.0	0.0	220.0	1	1.1	0.9; %Bus: Bus_90_220 (ID: #Bus_90_220#)
91	1	0.0	0.0	0.0	0.0	1	1.0	0.0	220.0	1	1.1	0.9; %Bus: Bus_91_220 (ID: #Bus_91_220#)
92	1	96.0	23.0	0.0	0.0	1	1.0	0.0	132.0	1	1.1	0.9; %Bus: Bus_92_132 (ID: #Bus_92_132#)
93	1	0.0	0.0	0.0	0.0	1	1.0	0.0	220.0	1	1.1	0.9; %Bus: Bus_93_220 (ID: #Bus_93_220#)
94	1	0.0	0.0	0.0	0.0	1	1.0	0.0	220.0	1	1.1	0.9; %Bus: Bus_94_220 (ID: #Bus_94_220#)
95	1	19.0	2.0	0.0	0.0	1	1.0	0.0	132.0	1	1.1	0.9; %Bus: Bus_95_132 (ID: #Bus_95_132#)
96	1	18.0	7.0	0.0	0.0	1	1.0	0.0	132.0	1	1.1	0.9; %Bus: Bus_96_132 (ID: #Bus_96_132#)
97	1	20.0	11.0	0.0	14.999999256	1	1.0	0.0	132.0	1	1.1	0.9; %Bus: Bus_97_132 (ID: #Bus_97_132#)
98	1	39.0	32.0	0.0	19.999999008	1	1.0	0.0	132.0	1	1.1	0.9; %Bus: Bus_98_132 (ID: #Bus_98_132#)
99	1	20.0	10.0	0.0	9.999999504	1	1.0	0.0	132.0	1	1.1	0.9; %Bus: Bus_99_132 (ID: #Bus_99_132#)
100	1	20.0	9.0	0.0	0.0	1	1.0	0.0	132.0	1	1.1	0.9; %Bus: Bus_100_132 (ID: #Bus_100_132#)
101	1	50.0	12.0	0.0	6.0000005735999995	1	1.0	0.0	132.0	1	1.1	0.9; %Bus: Bus_101_132 (ID: #Bus_101_132#)
102	2	23.0	16.0	0.0	0.0	1	1.0	0.0	132.0	1	1.1	0.9; %Bus: Bus_102_132 (ID: #Bus_102_132#)
103	1	2.0	1.0	0.0	0.0	1	1.0	0.0	132.0	1	1.1	0.9; %Bus: Bus_103_132 (ID: #Bus_103_132#)
104	1	34.0	8.0	0.0	0.0	1	1.0	0.0	132.0	1	1.1	0.9; %Bus: Bus_104_132 (ID: #Bus_104_132#)
105	1	8.0	3.0	0.0	0.0	1	1.0	0.0	132.0	1	1.1	0.9; %Bus: Bus_105_132 (ID: #Bus_105_132#)
106	1	0.0	0.0	0.0	0.0	1	1.0	0.0	220.0	1	1.1	0.9; %Bus: Bus_106_220 (ID: #Bus_106_220#)
107	1	18.0	5.0	0.0	0.0	1	1.0	0.0	132.0	1	1.1	0.9; %Bus: Bus_107_132 (ID: #Bus_107_132#)
108	1	24.0	4.0	0.0	0.0	1	1.0	0.0	132.0	1	1.1	0.9; %Bus: Bus_108_132 (ID: #Bus_108_132#)
109	1	0.0	0.0	0.0	0.0	1	1.0	0.0	132.0	1	1.1	0.9; %Bus: Bus_109_132 (ID: #Bus_109_132#)
110	1	14.0	8.0	0.0	0.0	1	1.0	0.0	132.0	1	1.1	0.9; %Bus: Bus_110_132 (ID: #Bus_110_132#)
111	1	28.0	0.0	0.0	0.0	1	1.0	0.0	220.0	1	1.1	0.9; %Bus: Bus_111_220 (ID: #Bus_111_220#)
112	2	0.0	0.0	0.0	0.0	1	1.0	0.0	33.0	1	1.1	0.9; %Bus: Bus_112_33 (ID: #Bus_112_33#)
113	1	17.0	4.0	0.0	0.0	1	1.0	0.0	132.0	1	1.1	0.9; %Bus: Bus_113_132 (ID: #Bus_113_132#)
114	1	27.0	11.0	0.0	0.0	1	1.0	0.0	132.0	1	1.1	0.9; %Bus: Bus_114_132 (ID: #Bus_114_132#)
115	1	12.0	3.0	0.0	0.0	1	1.0	0.0	132.0	1	1.1	0.9; %Bus: Bus_115_132 (ID: #Bus_115_132#)
116	1	60.0	34.0	0.0	0.0	1	1.0	0.0	132.0	1	1.1	0.9; %Bus: Bus_116_132 (ID: #Bus_116_132#)
117	2	0.0	0.0	0.0	0.0	1	1.0	0.0	132.0	1	1.1	0.9; %Bus: Bus_117_132 (ID: #Bus_117_132#)
118	1	54.0	27.0	0.0	19.999999008	1	1.0	0.0	132.0	1	1.1	0.9; %Bus: Bus_118_132 (ID: #Bus_118_132#)
119	1	68.0	13.0	0.0	0.0	1	1.0	0.0	132.0	1	1.1	0.9; %Bus: Bus_119_132 (ID: #Bus_119_132#)
120	2	0.0	0.0	0.0	0.0	1	1.0	0.0	132.0	1	1.1	0.9; %Bus: Bus_120_132 (ID: #Bus_120_132#)
121	2	0.0	0.0	0.0	0.0	1	1.0	0.0	220.0	1	1.1	0.9; %Bus: Bus_121_220 (ID: #Bus_121_220#)
122	1	0.0	0.0	0.0	0.0	1	1.0	0.0	132.0	1	1.1	0.9; %Bus: Bus_122_132 (ID: #Bus_122_132#)
];
%% generator data
mpc.gen = [
%bus	Pg	Qg	Qmax	Qmin	Vg	mBase	status	Pmax	Pmin	Pc1	Pc2	Qc1min	Qc1max	Qc2min	Qc2max	ramp_agc	ramp_10	ramp_30	ramp_q	apf
28	4.0	0.0	700.0	-700.0	1.0	700.0	1	700.0	-700.0	0.0	0.0	0.0	0.0	0.0	0.0	0.0	0.0	0.0	0.0	0.0; %Gen: Generator_Gen_132)
90	450.0	0.0	700.0	-700.0	1.0	700.0	1	700.0	-700.0	0.0	0.0	0.0	0.0	0.0	0.0	0.0	0.0	0.0	0.0	0.0; %Gen: Generator_Gen_220)
49	155.0	0.0	700.0	-700.0	1.0	700.0	1	700.0	-700.0	0.0	0.0	0.0	0.0	0.0	0.0	0.0	0.0	0.0	0.0	0.0; %Gen: Generator_Gen_132)
3	4.0	0.0	700.0	-700.0	1.0	700.0	1	700.0	-700.0	0.0	0.0	0.0	0.0	0.0	0.0	0.0	0.0	0.0	0.0	0.0; %Gen: Generator_Gen_33)
16	477.0	0.0	700.0	-700.0	1.0	700.0	1	700.0	-700.0	0.0	0.0	0.0	0.0	0.0	0.0	0.0	0.0	0.0	0.0	0.0; %Gen: Generator_Gen_132)
53	252.0	0.0	700.0	-700.0	1.0	700.0	1	700.0	-700.0	0.0	0.0	0.0	0.0	0.0	0.0	0.0	0.0	0.0	0.0	0.0; %Gen: Generator_Gen_132)
43	7.0	0.0	700.0	-700.0	1.0	700.0	1	700.0	-700.0	0.0	0.0	0.0	0.0	0.0	0.0	0.0	0.0	0.0	0.0	0.0; %Gen: Generator_Gen_132)
12	48.0	0.0	700.0	-700.0	1.0	700.0	1	700.0	-700.0	0.0	0.0	0.0	0.0	0.0	0.0	0.0	0.0	0.0	0.0	0.0; %Gen: Generator_Gen_132)
7	204.0	0.0	700.0	-700.0	1.0	700.0	1	700.0	-700.0	0.0	0.0	0.0	0.0	0.0	0.0	0.0	0.0	0.0	0.0	0.0; %Gen: Generator_Gen_132)
81	391.0	0.0	700.0	-700.0	1.0	700.0	1	700.0	-700.0	0.0	0.0	0.0	0.0	0.0	0.0	0.0	0.0	0.0	0.0	0.0; %Gen: Generator_Gen_220)
23	607.0	0.0	700.0	-700.0	1.0	700.0	1	700.0	-700.0	0.0	0.0	0.0	0.0	0.0	0.0	0.0	0.0	0.0	0.0	0.0; %Gen: Generator_Gen_132)
112	4.0	0.0	700.0	-700.0	1.0	700.0	1	700.0	-700.0	0.0	0.0	0.0	0.0	0.0	0.0	0.0	0.0	0.0	0.0	0.0; %Gen: Generator_Gen_33)
70	160.0	0.0	700.0	-700.0	1.0	700.0	1	700.0	-700.0	0.0	0.0	0.0	0.0	0.0	0.0	0.0	0.0	0.0	0.0	0.0; %Gen: Generator_Gen_132)
3	4.0	0.0	700.0	-700.0	1.0	700.0	1	700.0	-700.0	0.0	0.0	0.0	0.0	0.0	0.0	0.0	0.0	0.0	0.0	0.0; %Gen: Generator_Gen_33)
102	40.0	0.0	700.0	-700.0	1.0	700.0	1	700.0	-700.0	0.0	0.0	0.0	0.0	0.0	0.0	0.0	0.0	0.0	0.0	0.0; %Gen: Generator_Gen_132)
35	392.0	0.0	700.0	-700.0	1.0	700.0	1	700.0	-700.0	0.0	0.0	0.0	0.0	0.0	0.0	0.0	0.0	0.0	0.0	0.0; %Gen: Generator_Gen_132)
117	36.0	0.0	700.0	-700.0	1.0	700.0	1	700.0	-700.0	0.0	0.0	0.0	0.0	0.0	0.0	0.0	0.0	0.0	0.0	0.0; %Gen: Generator_Gen_132)
66	314.0	0.0	700.0	-700.0	1.0	700.0	1	700.0	-700.0	0.0	0.0	0.0	0.0	0.0	0.0	0.0	0.0	0.0	0.0	0.0; %Gen: Generator_Gen_220)
51	220.0	0.0	700.0	-700.0	1.0	700.0	1	700.0	-700.0	0.0	0.0	0.0	0.0	0.0	0.0	0.0	0.0	0.0	0.0	0.0; %Gen: Generator_Gen_132)
40	19.0	0.0	700.0	-700.0	1.0	700.0	1	700.0	-700.0	0.0	0.0	0.0	0.0	0.0	0.0	0.0	0.0	0.0	0.0	0.0; %Gen: Generator_Gen_132)
62	85.0	0.0	700.0	-700.0	1.0	700.0	1	700.0	-700.0	0.0	0.0	0.0	0.0	0.0	0.0	0.0	0.0	0.0	0.0	0.0; %Gen: Generator_Gen_132)
120	-6.0	0.0	700.0	-700.0	1.0	700.0	1	700.0	-700.0	0.0	0.0	0.0	0.0	0.0	0.0	0.0	0.0	0.0	0.0	0.0; %Gen: Generator_Gen_132)
122	-20.0	-8.0	700.0	-700.0	1.0	700.0	1	700.0	-700.0	0.0	0.0	0.0	0.0	0.0	0.0	0.0	0.0	0.0	0.0	0.0; %Gen: Generator_Gen_132)
121	-184.0	0.0	700.0	-700.0	1.0	700.0	1	700.0	-700.0	0.0	0.0	0.0	0.0	0.0	0.0	0.0	0.0	0.0	0.0	0.0; %Gen: Generator_Gen_220)
];
%% branch data
mpc.branch = [
%fbus	tbus	r	x	b	rateA	rateB	rateC	ratio	angle	status	angmin	angmax
41	51	0.1092	0.56	0.01234286	0	0	0	0.0	0.0	1	-360	360; %Branch: B_ACLine_132_41_51 (ID: #B_ACLine_132_41_51#168)
82	71	0.1568	0.63069984	0.0032	0	0	0	0.0	0.0	1	-360	360; %Branch: B_ACLine_132_82_71 (ID: #B_ACLine_132_82_71#169)
111	93	0.01708	0.2135	0.16599997	0	0	0	0.0	0.0	1	-360	360; %Branch: B_ACLine_220_111_93 (ID: #B_ACLine_220_111_93#170)
44	5	0.2401	0.67619984	0.00345714	0	0	0	0.0	0.0	1	-360	360; %Branch: B_ACLine_132_44_5 (ID: #B_ACLine_132_44_5#171)
81	31	0.01883	0.2114	0.05428572	0	0	0	0.0	0.0	1	-360	360; %Branch: B_ACLine_220_81_31 (ID: #B_ACLine_220_81_31#172)
58	8	0.2709	0.89040008	0.00466857	0	0	0	0.0	0.0	1	-360	360; %Branch: B_ACLine_132_58_8 (ID: #B_ACLine_132_58_8#173)
23	26	0.1666	0.69790008	0.01514286	0	0	0	0.0	0.0	1	-360	360; %Branch: B_ACLine_132_23_26 (ID: #B_ACLine_132_23_26#174)
52	22	0.1421	0.47740008	0.00248286	0	0	0	0.0	0.0	1	-360	360; %Branch: B_ACLine_132_52_22 (ID: #B_ACLine_132_52_22#175)
11	88	0.1806	0.819	0.00442857	0	0	0	0.0	0.0	1	-360	360; %Branch: B_ACLine_132_11_88 (ID: #B_ACLine_132_11_88#176)
113	7	0.1869	0.52640008	0.00267714	0	0	0	0.0	0.0	1	-360	360; %Branch: B_ACLine_132_113_7 (ID: #B_ACLine_132_113_7#177)
48	41	0.2219	0.80709992	0.01675714	0	0	0	0.0	0.0	1	-360	360; %Branch: B_ACLine_132_48_41 (ID: #B_ACLine_132_48_41#178)
99	1	0.301	1.036	0.00497143	0	0	0	0.0	0.0	1	-360	360; %Branch: B_ACLine_132_99_1 (ID: #B_ACLine_132_99_1#179)
44	113	0.3318	0.938	0.00474286	0	0	0	0.0	0.0	1	-360	360; %Branch: B_ACLine_132_44_113 (ID: #B_ACLine_132_44_113#180)
13	118	0.1134	0.371	0.00777143	0	0	0	0.0	0.0	1	-360	360; %Branch: B_ACLine_132_13_118 (ID: #B_ACLine_132_13_118#181)
67	65	0.52080016	1.71080016	0.00895429	0	0	0	0.0	0.0	1	-360	360; %Branch: B_ACLine_132_67_65 (ID: #B_ACLine_132_67_65#182)
45	77	0.02631998	0.0868	0.00180571	0	0	0	0.0	0.0	1	-360	360; %Branch: B_ACLine_132_45_77 (ID: #B_ACLine_132_45_77#183)
30	45	0.42069984	1.39930016	0.00711143	0	0	0	0.0	0.0	1	-360	360; %Branch: B_ACLine_132_30_45 (ID: #B_ACLine_132_30_45#184)
72	99	0.4375	0.924	0.00368571	0	0	0	0.0	0.0	1	-360	360; %Branch: B_ACLine_132_72_99 (ID: #B_ACLine_132_72_99#185)
8	23	0.2751	1.10669984	0.00591429	0	0	0	0.0	0.0	1	-360	360; %Branch: B_ACLine_132_8_23 (ID: #B_ACLine_132_8_23#186)
85	73	0.52640008	1.729	0.00902857	0	0	0	0.0	0.0	1	-360	360; %Branch: B_ACLine_132_85_73 (ID: #B_ACLine_132_85_73#187)
55	87	0.13390999	0.5985	0.00308572	0	0	0	0.0	0.0	1	-360	360; %Branch: B_ACLine_132_55_87 (ID: #B_ACLine_132_55_87#188)
77	98	0.03821998	0.1708	0.00092571	0	0	0	0.0	0.0	1	-360	360; %Branch: B_ACLine_132_77_98 (ID: #B_ACLine_132_77_98#189)
10	30	0.2996	0.987	0.00514286	0	0	0	0.0	0.0	1	-360	360; %Branch: B_ACLine_132_10_30 (ID: #B_ACLine_132_10_30#190)
5	49	0.5775	1.757	0.00812857	0	0	0	0.0	0.0	1	-360	360; %Branch: B_ACLine_132_5_49 (ID: #B_ACLine_132_5_49#191)
7	12	0.511	2.023	0.01054286	0	0	0	0.0	0.0	1	-360	360; %Branch: B_ACLine_132_7_12 (ID: #B_ACLine_132_7_12#192)
7	12	0.60830016	2.037	0.01042857	0	0	0	0.0	0.0	1	-360	360; %Branch: B_ACLine_132_7_12 (ID: #B_ACLine_132_7_12#193)
69	55	0.1148	0.51869984	0.00281714	0	0	0	0.0	0.0	1	-360	360; %Branch: B_ACLine_132_69_55 (ID: #B_ACLine_132_69_55#194)
122	62	0.2303	0.98	0.00511429	0	0	0	0.0	0.0	1	-360	360; %Branch: B_ACLine_132_122_62 (ID: #B_ACLine_132_122_62#195)
16	13	0.2492	1.274	0.00705714	0	0	0	0.0	0.0	1	-360	360; %Branch: B_ACLine_132_16_13 (ID: #B_ACLine_132_16_13#196)
61	48	0.4305	1.421	0.0074	0	0	0	0.0	0.0	1	-360	360; %Branch: B_ACLine_132_61_48 (ID: #B_ACLine_132_61_48#197)
53	78	0.1246	0.406	0.00862857	0	0	0	0.0	0.0	1	-360	360; %Branch: B_ACLine_132_53_78 (ID: #B_ACLine_132_53_78#198)
102	56	0.27341998	1.26909992	0.00658571	0	0	0	0.0	0.0	1	-360	360; %Branch: B_ACLine_132_102_56 (ID: #B_ACLine_132_102_56#199)
2	116	0.0861	0.3535	0.00185429	0	0	0	0.0	0.0	1	-360	360; %Branch: B_ACLine_132_2_116 (ID: #B_ACLine_132_2_116#200)
53	102	0.112	0.3675	0.00765714	0	0	0	0.0	0.0	1	-360	360; %Branch: B_ACLine_132_53_102 (ID: #B_ACLine_132_53_102#201)
69	105	0.0161	0.0728	0.00039429	0	0	0	0.0	0.0	1	-360	360; %Branch: B_ACLine_132_69_105 (ID: #B_ACLine_132_69_105#202)
11	35	0.3374	1.526	0.00825714	0	0	0	0.0	0.0	1	-360	360; %Branch: B_ACLine_132_11_35 (ID: #B_ACLine_132_11_35#203)
7	92	0.5005	2.261	0.01228571	0	0	0	0.0	0.0	1	-360	360; %Branch: B_ACLine_132_7_92 (ID: #B_ACLine_132_7_92#204)
17	33	0.59080016	1.94459992	0.01013143	0	0	0	0.0	0.0	1	-360	360; %Branch: B_ACLine_132_17_33 (ID: #B_ACLine_132_17_33#205)
86	12	0.1841	0.854	0.00442857	0	0	0	0.0	0.0	1	-360	360; %Branch: B_ACLine_132_86_12 (ID: #B_ACLine_132_86_12#206)
120	109	0.06061998	0.3178	0.00168286	0	0	0	0.0	0.0	1	-360	360; %Branch: B_ACLine_132_120_109 (ID: #B_ACLine_132_120_109#207)
74	79	0.1722	0.784	0.0042	0	0	0	0.0	0.0	1	-360	360; %Branch: B_ACLine_132_74_79 (ID: #B_ACLine_132_74_79#208)
73	116	0.07833002	0.3451	0.00163143	0	0	0	0.0	0.0	1	-360	360; %Branch: B_ACLine_132_73_116 (ID: #B_ACLine_132_73_116#209)
39	92	0.287	0.945	0.00491428	0	0	0	0.0	0.0	1	-360	360; %Branch: B_ACLine_132_39_92 (ID: #B_ACLine_132_39_92#210)
65	2	0.0924	0.3059	0.00634286	0	0	0	0.0	0.0	1	-360	360; %Branch: B_ACLine_132_65_2 (ID: #B_ACLine_132_65_2#211)
114	32	0.2247	0.742	0.00385714	0	0	0	0.0	0.0	1	-360	360; %Branch: B_ACLine_132_114_32 (ID: #B_ACLine_132_114_32#212)
86	107	0.2835	1.1445	0.00579714	0	0	0	0.0	0.0	1	-360	360; %Branch: B_ACLine_132_86_107 (ID: #B_ACLine_132_86_107#213)
17	40	0.266	0.889	0.00451428	0	0	0	0.0	0.0	1	-360	360; %Branch: B_ACLine_132_17_40 (ID: #B_ACLine_132_17_40#214)
10	42	0.2807	0.92609992	0.00481143	0	0	0	0.0	0.0	1	-360	360; %Branch: B_ACLine_132_10_42 (ID: #B_ACLine_132_10_42#215)
110	21	0.1281	0.59430016	0.00308572	0	0	0	0.0	0.0	1	-360	360; %Branch: B_ACLine_132_110_21 (ID: #B_ACLine_132_110_21#216)
54	12	0.1183	0.49490008	0.00288571	0	0	0	0.0	0.0	1	-360	360; %Branch: B_ACLine_132_54_12 (ID: #B_ACLine_132_54_12#217)
7	71	0.47880016	1.302	0.00634286	0	0	0	0.0	0.0	1	-360	360; %Branch: B_ACLine_132_7_71 (ID: #B_ACLine_132_7_71#218)
59	103	0.0735	0.2016	0.00108571	0	0	0	0.0	0.0	1	-360	360; %Branch: B_ACLine_132_59_103 (ID: #B_ACLine_132_59_103#219)
33	7	0.6895	2.268	0.01182857	0	0	0	0.0	0.0	1	-360	360; %Branch: B_ACLine_132_33_7 (ID: #B_ACLine_132_33_7#220)
53	36	0.3157	1.428	0.00772857	0	0	0	0.0	0.0	1	-360	360; %Branch: B_ACLine_132_53_36 (ID: #B_ACLine_132_53_36#221)
102	25	0.3745	1.1375	0.00582857	0	0	0	0.0	0.0	1	-360	360; %Branch: B_ACLine_132_102_25 (ID: #B_ACLine_132_102_25#222)
49	12	0.3521	1.60509992	0.00854286	0	0	0	0.0	0.0	1	-360	360; %Branch: B_ACLine_132_49_12 (ID: #B_ACLine_132_49_12#223)
65	80	0.266	0.87080016	0.00456286	0	0	0	0.0	0.0	1	-360	360; %Branch: B_ACLine_132_65_80 (ID: #B_ACLine_132_65_80#224)
110	57	0.1463	0.679	0.00351429	0	0	0	0.0	0.0	1	-360	360; %Branch: B_ACLine_132_110_57 (ID: #B_ACLine_132_110_57#225)
49	64	0.2219	1.015	0.00537143	0	0	0	0.0	0.0	1	-360	360; %Branch: B_ACLine_132_49_64 (ID: #B_ACLine_132_49_64#226)
61	2	0.06390999	0.2107	0.00109714	0	0	0	0.0	0.0	1	-360	360; %Branch: B_ACLine_132_61_2 (ID: #B_ACLine_132_61_2#227)
45	33	0.2163	0.707	0.01482857	0	0	0	0.0	0.0	1	-360	360; %Branch: B_ACLine_132_45_33 (ID: #B_ACLine_132_45_33#228)
85	32	0.01791998	0.0658	0.00140571	0	0	0	0.0	0.0	1	-360	360; %Branch: B_ACLine_132_85_32 (ID: #B_ACLine_132_85_32#229)
95	63	0.03213002	0.1456	0.00078572	0	0	0	0.0	0.0	1	-360	360; %Branch: B_ACLine_132_95_63 (ID: #B_ACLine_132_95_63#230)
81	15	0.00966	0.112	0.09114287	0	0	0	0.0	0.0	1	-360	360; %Branch: B_ACLine_220_81_15 (ID: #B_ACLine_220_81_15#231)
6	1	0.14	0.714	0.00394286	0	0	0	0.0	0.0	1	-360	360; %Branch: B_ACLine_132_6_1 (ID: #B_ACLine_132_6_1#232)
62	100	0.1309	0.43119984	0.00224571	0	0	0	0.0	0.0	1	-360	360; %Branch: B_ACLine_132_62_100 (ID: #B_ACLine_132_62_100#233)
78	13	0.1883	0.60830016	0.00328571	0	0	0	0.0	0.0	1	-360	360; %Branch: B_ACLine_132_78_13 (ID: #B_ACLine_132_78_13#234)
58	26	0.1778	0.58519984	0.00305714	0	0	0	0.0	0.0	1	-360	360; %Branch: B_ACLine_132_58_26 (ID: #B_ACLine_132_58_26#235)
8	78	0.33669996	1.106	0.0058	0	0	0	0.0	0.0	1	-360	360; %Branch: B_ACLine_132_8_78 (ID: #B_ACLine_132_8_78#236)
19	62	0.3388	1.12	0.0058	0	0	0	0.0	0.0	1	-360	360; %Branch: B_ACLine_132_19_62 (ID: #B_ACLine_132_19_62#237)
8	23	0.0693	0.3535	0.00782857	0	0	0	0.0	0.0	1	-360	360; %Branch: B_ACLine_132_8_23 (ID: #B_ACLine_132_8_23#238)
54	49	0.33173002	1.51059992	0.00806571	0	0	0	0.0	0.0	1	-360	360; %Branch: B_ACLine_132_54_49 (ID: #B_ACLine_132_54_49#239)
16	68	0.1281	0.65380016	0.00362857	0	0	0	0.0	0.0	1	-360	360; %Branch: B_ACLine_132_16_68 (ID: #B_ACLine_132_16_68#240)
45	118	0.2086	0.59709992	0.01167714	0	0	0	0.0	0.0	1	-360	360; %Branch: B_ACLine_132_45_118 (ID: #B_ACLine_132_45_118#241)
71	40	0.28	0.94919984	0.00474286	0	0	0	0.0	0.0	1	-360	360; %Branch: B_ACLine_132_71_40 (ID: #B_ACLine_132_71_40#242)
95	62	0.06034001	0.238	0.00124857	0	0	0	0.0	0.0	1	-360	360; %Branch: B_ACLine_132_95_62 (ID: #B_ACLine_132_95_62#243)
65	73	0.084	0.2758	0.00144286	0	0	0	0.0	0.0	1	-360	360; %Branch: B_ACLine_132_65_73 (ID: #B_ACLine_132_65_73#244)
20	62	0.1484	0.58380016	0.00305714	0	0	0	0.0	0.0	1	-360	360; %Branch: B_ACLine_132_20_62 (ID: #B_ACLine_132_20_62#245)
35	7	0.126	0.64330016	0.00354286	0	0	0	0.0	0.0	1	-360	360; %Branch: B_ACLine_132_35_7 (ID: #B_ACLine_132_35_7#246)
101	25	0.371	1.281	0.00674286	0	0	0	0.0	0.0	1	-360	360; %Branch: B_ACLine_132_101_25 (ID: #B_ACLine_132_101_25#247)
98	16	0.1092	0.49280016	0.00267143	0	0	0	0.0	0.0	1	-360	360; %Branch: B_ACLine_132_98_16 (ID: #B_ACLine_132_98_16#248)
32	27	0.077	0.3479	0.00188286	0	0	0	0.0	0.0	1	-360	360; %Branch: B_ACLine_132_32_27 (ID: #B_ACLine_132_32_27#249)
29	3	0.0	0.64279155	0.0	0	0	0	0.0	0.0	1	-360	360; %Branch: B_ACLine_33_29_3 (ID: #B_ACLine_33_29_3#250)
53	14	0.4235	1.603	0.00885714	0	0	0	0.0	0.0	1	-360	360; %Branch: B_ACLine_132_53_14 (ID: #B_ACLine_132_53_14#251)
43	48	0.2086	0.6895	0.00358571	0	0	0	0.0	0.0	1	-360	360; %Branch: B_ACLine_132_43_48 (ID: #B_ACLine_132_43_48#252)
19	52	0.1687	0.756	0.00405714	0	0	0	0.0	0.0	1	-360	360; %Branch: B_ACLine_132_19_52 (ID: #B_ACLine_132_19_52#253)
102	36	0.3262	1.10880016	0.00581429	0	0	0	0.0	0.0	1	-360	360; %Branch: B_ACLine_132_102_36 (ID: #B_ACLine_132_102_36#254)
7	92	0.5005	2.261	0.01228571	0	0	0	0.0	0.0	1	-360	360; %Branch: B_ACLine_132_7_92 (ID: #B_ACLine_132_7_92#255)
13	68	0.1211	0.6195	0.00342857	0	0	0	0.0	0.0	1	-360	360; %Branch: B_ACLine_132_13_68 (ID: #B_ACLine_132_13_68#256)
15	106	0.01225	0.14139999	0.11542861	0	0	0	0.0	0.0	1	-360	360; %Branch: B_ACLine_220_15_106 (ID: #B_ACLine_220_15_106#257)
66	50	0.05593	0.602	0.12971428	0	0	0	0.0	0.0	1	-360	360; %Branch: B_ACLine_220_66_50 (ID: #B_ACLine_220_66_50#258)
93	90	0.01806	0.2254	0.17571426	0	0	0	0.0	0.0	1	-360	360; %Branch: B_ACLine_220_93_90 (ID: #B_ACLine_220_93_90#259)
50	94	0.03248	0.378	0.06028571	0	0	0	0.0	0.0	1	-360	360; %Branch: B_ACLine_220_50_94 (ID: #B_ACLine_220_50_94#260)
107	24	0.1421	0.41159992	0.00199429	0	0	0	0.0	0.0	1	-360	360; %Branch: B_ACLine_132_107_24 (ID: #B_ACLine_132_107_24#261)
8	60	0.1806	0.59359992	0.00311429	0	0	0	0.0	0.0	1	-360	360; %Branch: B_ACLine_132_8_60 (ID: #B_ACLine_132_8_60#262)
9	100	0.2121	0.69930016	0.00362857	0	0	0	0.0	0.0	1	-360	360; %Branch: B_ACLine_132_9_100 (ID: #B_ACLine_132_9_100#263)
96	82	0.42559992	1.71780016	0.00866857	0	0	0	0.0	0.0	1	-360	360; %Branch: B_ACLine_132_96_82 (ID: #B_ACLine_132_96_82#264)
35	88	0.1568	0.7105	0.00383143	0	0	0	0.0	0.0	1	-360	360; %Branch: B_ACLine_132_35_88 (ID: #B_ACLine_132_35_88#265)
25	36	0.06958002	0.2646	0.00140857	0	0	0	0.0	0.0	1	-360	360; %Branch: B_ACLine_132_25_36 (ID: #B_ACLine_132_25_36#266)
43	2	0.3318	1.09409992	0.0057	0	0	0	0.0	0.0	1	-360	360; %Branch: B_ACLine_132_43_2 (ID: #B_ACLine_132_43_2#267)
8	79	0.0861	0.3913	0.00209143	0	0	0	0.0	0.0	1	-360	360; %Branch: B_ACLine_132_8_79 (ID: #B_ACLine_132_8_79#268)
41	89	0.0945	0.3444	0.00711429	0	0	0	0.0	0.0	1	-360	360; %Branch: B_ACLine_132_41_89 (ID: #B_ACLine_132_41_89#269)
101	14	0.371	1.281	0.00674286	0	0	0	0.0	0.0	1	-360	360; %Branch: B_ACLine_132_101_14 (ID: #B_ACLine_132_101_14#270)
59	56	0.1946	0.53340008	0.00288571	0	0	0	0.0	0.0	1	-360	360; %Branch: B_ACLine_132_59_56 (ID: #B_ACLine_132_59_56#271)
121	15	0.00238	0.02835	0.02342857	0	0	0	0.0	0.0	1	-360	360; %Branch: B_ACLine_220_121_15 (ID: #B_ACLine_220_121_15#272)
78	60	0.1561	0.51240008	0.00268	0	0	0	0.0	0.0	1	-360	360; %Branch: B_ACLine_132_78_60 (ID: #B_ACLine_132_78_60#273)
81	94	0.06307	0.6902	0.14942857	0	0	0	0.0	0.0	1	-360	360; %Branch: B_ACLine_220_81_94 (ID: #B_ACLine_220_81_94#274)
78	75	0.0924	0.3038	0.00158571	0	0	0	0.0	0.0	1	-360	360; %Branch: B_ACLine_132_78_75 (ID: #B_ACLine_132_78_75#275)
10	89	0.01546998	2.8805	0.01456857	0	0	0	0.0	0.0	1	-360	360; %Branch: B_ACLine_132_10_89 (ID: #B_ACLine_132_10_89#276)
109	10	0.06174001	0.2485	0.00125429	0	0	0	0.0	0.0	1	-360	360; %Branch: B_ACLine_132_109_10 (ID: #B_ACLine_132_109_10#277)
32	84	0.41509992	1.176	0.006	0	0	0	0.0	0.0	1	-360	360; %Branch: B_ACLine_132_32_84 (ID: #B_ACLine_132_32_84#278)
53	76	0.126	0.56909992	0.00308572	0	0	0	0.0	0.0	1	-360	360; %Branch: B_ACLine_132_53_76 (ID: #B_ACLine_132_53_76#279)
83	109	0.3122	1.26	0.00634857	0	0	0	0.0	0.0	1	-360	360; %Branch: B_ACLine_132_83_109 (ID: #B_ACLine_132_83_109#280)
92	84	0.38850004	1.281	0.00665714	0	0	0	0.0	0.0	1	-360	360; %Branch: B_ACLine_132_92_84 (ID: #B_ACLine_132_92_84#281)
9	19	0.0903	0.2968	0.00154572	0	0	0	0.0	0.0	1	-360	360; %Branch: B_ACLine_132_9_19 (ID: #B_ACLine_132_9_19#282)
75	13	0.1197	0.3829	0.00210572	0	0	0	0.0	0.0	1	-360	360; %Branch: B_ACLine_132_75_13 (ID: #B_ACLine_132_75_13#283)
41	57	0.2394	1.113	0.00577143	0	0	0	0.0	0.0	1	-360	360; %Branch: B_ACLine_132_41_57 (ID: #B_ACLine_132_41_57#284)
62	46	0.1505	0.49490008	0.00259429	0	0	0	0.0	0.0	1	-360	360; %Branch: B_ACLine_132_62_46 (ID: #B_ACLine_132_62_46#285)
30	42	0.0861	0.2842	0.00147714	0	0	0	0.0	0.0	1	-360	360; %Branch: B_ACLine_132_30_42 (ID: #B_ACLine_132_30_42#286)
31	91	0.01204	0.13999999	0.03085714	0	0	0	0.0	0.0	1	-360	360; %Branch: B_ACLine_220_31_91 (ID: #B_ACLine_220_31_91#287)
11	70	0.05768002	0.2632	0.0014	0	0	0	0.0	0.0	1	-360	360; %Branch: B_ACLine_132_11_70 (ID: #B_ACLine_132_11_70#288)
89	83	0.3416	1.372	0.00697143	0	0	0	0.0	0.0	1	-360	360; %Branch: B_ACLine_132_89_83 (ID: #B_ACLine_132_89_83#289)
14	25	0.098	0.3829	0.00204857	0	0	0	0.0	0.0	1	-360	360; %Branch: B_ACLine_132_14_25 (ID: #B_ACLine_132_14_25#290)
48	105	0.0945	0.42840008	0.00232571	0	0	0	0.0	0.0	1	-360	360; %Branch: B_ACLine_132_48_105 (ID: #B_ACLine_132_48_105#291)
37	85	0.06096998	0.1876	0.00081143	0	0	0	0.0	0.0	1	-360	360; %Branch: B_ACLine_132_37_85 (ID: #B_ACLine_132_37_85#292)
37	27	0.01568002	0.0714	0.00038286	0	0	0	0.0	0.0	1	-360	360; %Branch: B_ACLine_132_37_27 (ID: #B_ACLine_132_37_27#293)
39	84	0.1015	0.3409	0.00174572	0	0	0	0.0	0.0	1	-360	360; %Branch: B_ACLine_132_39_84 (ID: #B_ACLine_132_39_84#294)
34	52	0.01231998	0.05585999	0.0003	0	0	0	0.0	0.0	1	-360	360; %Branch: B_ACLine_132_34_52 (ID: #B_ACLine_132_34_52#295)
53	104	0.2779	1.253	0.0068	0	0	0	0.0	0.0	1	-360	360; %Branch: B_ACLine_132_53_104 (ID: #B_ACLine_132_53_104#296)
1	72	0.2114	0.44869984	0.00176286	0	0	0	0.0	0.0	1	-360	360; %Branch: B_ACLine_132_1_72 (ID: #B_ACLine_132_1_72#297)
117	56	0.154	0.5285	0.00285714	0	0	0	0.0	0.0	1	-360	360; %Branch: B_ACLine_132_117_56 (ID: #B_ACLine_132_117_56#298)
29	3	0.0	0.64279155	0.0	0	0	0	0.0	0.0	1	-360	360; %Branch: B_ACLine_33_29_3 (ID: #B_ACLine_33_29_3#299)
7	17	0.1337	0.4375	0.00229143	0	0	0	0.0	0.0	1	-360	360; %Branch: B_ACLine_132_7_17 (ID: #B_ACLine_132_7_17#300)
22	67	0.15575	0.51169984	0.00268	0	0	0	0.0	0.0	1	-360	360; %Branch: B_ACLine_132_22_67 (ID: #B_ACLine_132_22_67#301)
64	70	0.01848002	0.0945	0.00208	0	0	0	0.0	0.0	1	-360	360; %Branch: B_ACLine_132_64_70 (ID: #B_ACLine_132_64_70#302)
38	3	0.0	0.64279155	0.0	0	0	0	0.0	0.0	1	-360	360; %Branch: B_ACLine_33_38_3 (ID: #B_ACLine_33_38_3#303)
28	4	0.1148	0.3808	0.00193714	0	0	0	0.0	0.0	1	-360	360; %Branch: B_ACLine_132_28_4 (ID: #B_ACLine_132_28_4#304)
73	21	0.1764	0.819	0.00425714	0	0	0	0.0	0.0	1	-360	360; %Branch: B_ACLine_132_73_21 (ID: #B_ACLine_132_73_21#305)
99	118	0.0784	0.25655	0.00542286	0	0	0	0.0	0.0	1	-360	360; %Branch: B_ACLine_132_99_118 (ID: #B_ACLine_132_99_118#306)
2	20	0.3178	1.26069984	0.00665714	0	0	0	0.0	0.0	1	-360	360; %Branch: B_ACLine_132_2_20 (ID: #B_ACLine_132_2_20#307)
24	115	0.1785	0.50330016	0.00255429	0	0	0	0.0	0.0	1	-360	360; %Branch: B_ACLine_132_24_115 (ID: #B_ACLine_132_24_115#308)
108	43	0.0756	0.2317	0.00118571	0	0	0	0.0	0.0	1	-360	360; %Branch: B_ACLine_132_108_43 (ID: #B_ACLine_132_108_43#309)
22	62	0.04165	0.1372	0.00071714	0	0	0	0.0	0.0	1	-360	360; %Branch: B_ACLine_132_22_62 (ID: #B_ACLine_132_22_62#310)
35	7	0.126	0.64330016	0.00354286	0	0	0	0.0	0.0	1	-360	360; %Branch: B_ACLine_132_35_7 (ID: #B_ACLine_132_35_7#311)
63	52	0.0833	0.378	0.00203714	0	0	0	0.0	0.0	1	-360	360; %Branch: B_ACLine_132_63_52 (ID: #B_ACLine_132_63_52#312)
48	55	0.1603	0.5285	0.00275143	0	0	0	0.0	0.0	1	-360	360; %Branch: B_ACLine_132_48_55 (ID: #B_ACLine_132_48_55#313)
5	54	0.03415999	0.1057	0.00053428	0	0	0	0.0	0.0	1	-360	360; %Branch: B_ACLine_132_5_54 (ID: #B_ACLine_132_5_54#314)
103	25	0.1827	0.49209992	0.00263428	0	0	0	0.0	0.0	1	-360	360; %Branch: B_ACLine_132_103_25 (ID: #B_ACLine_132_103_25#315)
115	5	0.2401	0.67619984	0.00345714	0	0	0	0.0	0.0	1	-360	360; %Branch: B_ACLine_132_115_5 (ID: #B_ACLine_132_115_5#316)
114	84	0.1288	0.4235	0.00221714	0	0	0	0.0	0.0	1	-360	360; %Branch: B_ACLine_132_114_84 (ID: #B_ACLine_132_114_84#317)
1	23	0.1673	1.211	0.00671429	0	0	0	0.0	0.0	1	-360	360; %Branch: B_ACLine_132_1_23 (ID: #B_ACLine_132_1_23#318)
49	5	0.56209992	1.673	0.00765714	0	0	0	0.0	0.0	1	-360	360; %Branch: B_ACLine_132_49_5 (ID: #B_ACLine_132_49_5#319)
23	26	0.3626	1.316	0.00754286	0	0	0	0.0	0.0	1	-360	360; %Branch: B_ACLine_132_23_26 (ID: #B_ACLine_132_23_26#320)
45	4	0.3108	1.036	0.00525714	0	0	0	0.0	0.0	1	-360	360; %Branch: B_ACLine_132_45_4 (ID: #B_ACLine_132_45_4#321)
55	51	0.22260004	1.141	0.02520001	0	0	0	0.0	0.0	1	-360	360; %Branch: B_ACLine_132_55_51 (ID: #B_ACLine_132_55_51#322)
7	97	0.1253	0.3535	0.00179714	0	0	0	0.0	0.0	1	-360	360; %Branch: B_ACLine_132_7_97 (ID: #B_ACLine_132_7_97#323)
16	76	0.3178	1.442	0.0078	0	0	0	0.0	0.0	1	-360	360; %Branch: B_ACLine_132_16_76 (ID: #B_ACLine_132_16_76#324)
1	47	0.245	0.861	0.00394286	0	0	0	0.0	0.0	1	-360	360; %Branch: B_ACLine_132_1_47 (ID: #B_ACLine_132_1_47#325)
30	33	0.2835	0.854	0.01771429	0	0	0	0.0	0.0	1	-360	360; %Branch: B_ACLine_132_30_33 (ID: #B_ACLine_132_30_33#326)
33	10	0.21	0.889	0.01742857	0	0	0	0.0	0.0	1	-360	360; %Branch: B_ACLine_132_33_10 (ID: #B_ACLine_132_33_10#327)
3	38	0.0	0.64279155	0.0	0	0	0	0.0	0.0	1	-360	360; %Branch: B_ACLine_33_3_38 (ID: #B_ACLine_33_3_38#328)
8	53	0.45359992	2.065	0.00674286	0	0	0	0.0	0.0	1	-360	360; %Branch: B_ACLine_132_8_53 (ID: #B_ACLine_132_8_53#329)
24	7	0.3402	0.959	0.00488571	0	0	0	0.0	0.0	1	-360	360; %Branch: B_ACLine_132_24_7 (ID: #B_ACLine_132_24_7#330)
65	46	0.4165	1.365	0.00717143	0	0	0	0.0	0.0	1	-360	360; %Branch: B_ACLine_132_65_46 (ID: #B_ACLine_132_65_46#331)
97	40	0.42069984	1.323	0.00674286	0	0	0	0.0	0.0	1	-360	360; %Branch: B_ACLine_132_97_40 (ID: #B_ACLine_132_97_40#332)
32	80	0.2905	0.994	0.00522857	0	0	0	0.0	0.0	1	-360	360; %Branch: B_ACLine_132_32_80 (ID: #B_ACLine_132_32_80#333)
45	16	0.2058	0.735	0.00325714	0	0	0	0.0	0.0	1	-360	360; %Branch: B_ACLine_132_45_16 (ID: #B_ACLine_132_45_16#334)
30	28	0.1015	0.33669996	0.00171143	0	0	0	0.0	0.0	1	-360	360; %Branch: B_ACLine_132_30_28 (ID: #B_ACLine_132_30_28#335)
34	22	0.1463	0.48159992	0.00249714	0	0	0	0.0	0.0	1	-360	360; %Branch: B_ACLine_132_34_22 (ID: #B_ACLine_132_34_22#336)
85	96	0.2891	1.17669984	0.00603714	0	0	0	0.0	0.0	1	-360	360; %Branch: B_ACLine_132_85_96 (ID: #B_ACLine_132_85_96#337)
53	74	0.1939	0.88340008	0.00468571	0	0	0	0.0	0.0	1	-360	360; %Branch: B_ACLine_132_53_74 (ID: #B_ACLine_132_53_74#338)
12	5	0.01925	0.06685	0.00104571	0	0	0	0.0	0.0	1	-360	360; %Branch: B_ACLine_132_12_5 (ID: #B_ACLine_132_12_5#339)
16	45	0.119	0.33950004	0.00674286	0	0	0	0.0	0.0	1	-360	360; %Branch: B_ACLine_132_16_45 (ID: #B_ACLine_132_16_45#340)
64	11	0.0861	0.3927	0.00209714	0	0	0	0.0	0.0	1	-360	360; %Branch: B_ACLine_132_64_11 (ID: #B_ACLine_132_64_11#341)
70	49	0.2296	1.05	0.00554286	0	0	0	0.0	0.0	1	-360	360; %Branch: B_ACLine_132_70_49 (ID: #B_ACLine_132_70_49#342)
6	23	0.0973	0.49840008	0.00276286	0	0	0	0.0	0.0	1	-360	360; %Branch: B_ACLine_132_6_23 (ID: #B_ACLine_132_6_23#343)
50	111	0.03017	0.3528	0.07342861	0	0	0	0.0	0.0	1	-360	360; %Branch: B_ACLine_220_50_111 (ID: #B_ACLine_220_50_111#344)
108	87	0.1659	0.66009992	0.0034	0	0	0	0.0	0.0	1	-360	360; %Branch: B_ACLine_132_108_87 (ID: #B_ACLine_132_108_87#345)
16	104	0.1666	0.756	0.00408571	0	0	0	0.0	0.0	1	-360	360; %Branch: B_ACLine_132_16_104 (ID: #B_ACLine_132_16_104#346)
56	119	0.1729	0.448	0.00885714	0	0	0	0.0	0.0	1	-360	360; %Branch: B_ACLine_132_56_119 (ID: #B_ACLine_132_56_119#347)
91	49	0.0	0.2702	0.0	300.0	0	0	1.0	0.0	1	-360	360; %Branch: B_Transformer_220_91_49 (ID: #B_Transformer_220_91_49#494)
15	33	0.0	0.259	0.0	300.0	0	0	1.0	0.0	1	-360	360; %Branch: B_Transformer_220_15_33 (ID: #B_Transformer_220_15_33#495)
111	52	0.0	0.1869	0.0	400.0	0	0	1.0	0.0	1	-360	360; %Branch: B_Transformer_220_111_52 (ID: #B_Transformer_220_111_52#496)
66	51	0.0	0.2674	0.0	300.0	0	0	1.0	0.0	1	-360	360; %Branch: B_Transformer_220_66_51 (ID: #B_Transformer_220_66_51#497)
94	32	0.0	0.2625	0.0	300.0	0	0	1.0	0.0	1	-360	360; %Branch: B_Transformer_220_94_32 (ID: #B_Transformer_220_94_32#498)
81	35	0.0	0.259	0.0	300.0	0	0	1.0	0.0	1	-360	360; %Branch: B_Transformer_220_81_35 (ID: #B_Transformer_220_81_35#499)
47	112	2.0e-7	1.46523401	0.0	50.0	0	0	1.0	0.0	1	-360	360; %Branch: B_Transformer_33_47_112 (ID: #B_Transformer_33_47_112#500)
50	2	0.0	0.2716	0.0	300.0	0	0	1.0	0.0	1	-360	360; %Branch: B_Transformer_220_50_2 (ID: #B_Transformer_220_50_2#501)
31	70	0.0	0.1876	0.0	400.0	0	0	1.0	0.0	1	-360	360; %Branch: B_Transformer_220_31_70 (ID: #B_Transformer_220_31_70#502)
106	16	0.0	0.259	0.0	300.0	0	0	1.0	0.0	1	-360	360; %Branch: B_Transformer_220_106_16 (ID: #B_Transformer_220_106_16#503)
1	38	0.0	0.28	0.0	250.0	0	0	1.0	0.0	1	-360	360; %Branch: B_Transformer_33_1_38 (ID: #B_Transformer_33_1_38#504)
1	29	0.0	0.28	0.0	250.0	0	0	1.0	0.0	1	-360	360; %Branch: B_Transformer_33_1_29 (ID: #B_Transformer_33_1_29#505)
26	18	0.0	0.28	0.0	250.0	0	0	1.0	0.0	1	-360	360; %Branch: B_Transformer_33_26_18 (ID: #B_Transformer_33_26_18#506)
26	18	0.0	0.28	0.0	250.0	0	0	1.0	0.0	1	-360	360; %Branch: B_Transformer_33_26_18 (ID: #B_Transformer_33_26_18#507)
];
